units				lj
dimension			3
atom_style			full

# change neighbor list parameters to avoid dangerous builds
neighbor			2.0 bin
neigh_modify			delay 3
comm_modify 			vel yes

read_data			data_lmp.out
  orthogonal box = (-22.9938 -22.9938 -31.5415) to (22.9938 22.9938 31.5415)
  reading atoms ...
  400312 atoms
  scanning bonds ...
  scanning angles ...
  scanning impropers ...
  reading bonds ...
  348 bonds
  reading angles ...
  492 angles
  reading impropers ...
  108 impropers

variable			rc equal 1.0

pair_style			dpd 1.0 1 34387
pair_coeff	1	1	25	4.5	1
pair_coeff	1	2	165.362815626677	4.5	1
pair_coeff	1	3	116.862097154698	4.5	1
pair_coeff	1	4	146.155374914401	4.5	1
pair_coeff	1	5	7.1909203509054	4.5	1
pair_coeff	2	2	25	4.5	1
pair_coeff	2	3	35.9792833065638	4.5	1
pair_coeff	2	4	25.5695494065343	4.5	1
pair_coeff	2	5	129.458804641795	4.5	1
pair_coeff	3	3	25	4.5	1
pair_coeff	3	4	33.9335949525505	4.5	1
pair_coeff	3	5	76.0819248063004	4.5	1
pair_coeff	4	4	25	4.5	1
pair_coeff	4	5	126.398804395962	4.5	1
pair_coeff	5	5	25	4.5	1

# Parâmetros de lig, ângulo e impróprio tirados do Chen2018 e com o coarse-graining do Striolo
variable			k_lig_aro equal 1000
variable			k_lig_ali equal 100
variable			r0_aro equal 0.8*1
variable			r0_ali equal 0.9*1
bond_style 			harmonic
bond_coeff 			1 1000 0.8
bond_coeff 			2 1000 0.8
bond_coeff 			3 100 0.9
bond_coeff			4 100 0.9
bond_coeff			5 100 0.9

variable			k_ang equal 125
angle_style 			cosine/delta
angle_coeff 			1 125 120.0

variable			k_imp equal 5
improper_style 			cvff
improper_coeff	 		* 5 -1 2

variable                        dt equal 0.002
mass				* 1.0
velocity			all create $T 12345 dist gaussian
velocity			all create 1.0 12345 dist gaussian
fix				1 all nve

variable                        total_timesteps equal 3000000
variable			equi_timesteps	equal round(3000000*50/100)
variable			thermo_equi	equal round(1500000/1000)
variable			thermo_prod	equal round(3000000/1000)
variable                        dump equal round(3000000/1)

# Equilibration
timestep                        0.002
thermo                          1500
thermo_style                    custom step temp press pe ke etotal epair emol
run                             1500000
  update every 1 steps, delay 3 steps, check yes
Step Temp Press PotEng KinEng TotEng E_pair E_mol
0            1    95.635306    18.608766    1.4999963    20.108763    18.460748   0.14801851
Averages over the last 501 of 1001 rows, steps 750000 to 1500000:
Temp Press PotEng KinEng TotEng E_pair E_mol
1.00088 23.9549 4.59804 1.50132 6.09936 4.5888 0.00923727
Loop time of 45421 on 24 procs for 1500000 steps with 400312 atoms

reset_timestep                  0

# Production
group 				all type 1 2 3 4 5
400312 atoms in group all
group                           aroma_ring type 3
168 atoms in group aroma_ring
group                           asfalteno type 3 4 5
312 atoms in group asfalteno

#MSD computation
compute				chunk_aroma_ring aroma_ring chunk/atom molecule nchunk once ids once compress yes
compute				com_aroma_ring aroma_ring com/chunk chunk_aroma_ring
fix				2 aroma_ring ave/time 1 6000 6000 c_com_aroma_ring[*] mode vector file pos_CoM.out #these positions are already unwrapped

# Stress computation
compute				peratom asfalteno stress/atom NULL
compute				p asfalteno reduce sum c_peratom[4] c_peratom[5] c_peratom[6]   #  Pxy, Pxz, Pyz
variable			n_total equal count(all)
variable			v equal vol
variable			n_asfal equal count(asfalteno)
variable 			conversion equal 133411.265731101/400312*312
variable 			pxy equal -c_p[1]/103.979683117427
variable 			pxz equal -c_p[2]/103.979683117427
variable 			pyz equal -c_p[3]/103.979683117427
fix				3 all ave/time 1 10 10 v_pxy v_pxz v_pyz file stress.dat

#IFT computation
				#converter KbT/rc² para mN/m
variable			kb equal 1.38064852E-23  # J/K
variable			temperature equal 298 # K
variable			cuttof_radius equal 6.74e-10 # m
variable			conversion0 equal 1.38064852e-23*298/6.74e-10/6.74e-10
variable			conversion equal 0.00905690062781216*1000
variable			number_interfaces equal 2 # só tem uma molécula de asfal, nessa concentração

variable			Nfreq	equal 3000
variable			Nrepeat	equal 3000/10
variable			Nevery	equal 10

variable			IFTx equal abs((pxx-(pyy+pzz)/2)*lx)*9.05690062781216/2
fix				IFTx_ave all ave/time 10 300 3000 v_IFTx ave running start 0

variable			IFTy equal abs((pyy-(pxx+pzz)/2)*ly)*9.05690062781216/2
fix				IFTy_ave all ave/time 10 300 3000 v_IFTy ave running start 0

variable			IFTz equal abs((pzz-(pxx+pyy)/2)*lz)*9.05690062781216/2
fix				IFTz_ave all ave/time 10 300 3000 v_IFTz ave running start 0

dump				1 all custom 3000000 all_1.0.lammpstrj id mol type x y z
dump				2 asfalteno custom 3000000 asfal_1.0.lammpstrj id mol type x y z
dump				3 aroma_ring custom 3000000 aroma_ring_1.0.lammpstrj id mol type x y z

timestep     			0.002
thermo	     			3000
thermo_style			custom step temp press pe ke etotal epair emol v_IFTx v_IFTy v_IFTz
run				3000000
Step Temp Press PotEng KinEng TotEng E_pair E_mol v_IFTx v_IFTy v_IFTz
0   0.99981931     23.96611    4.5955846    1.4997252    6.0953098    4.5867682 0.0088164414    32.308627     12.96667    62.106001
Averages over the last 501 of 1001 rows, steps 1500000 to 3000000:
Temp Press PotEng KinEng TotEng E_pair E_mol v_IFTx v_IFTy v_IFTz
1.00085 23.9514 4.59698 1.50127 6.09825 4.58775 0.00922706 17.2694 17.298 45.1627
Loop time of 141438 on 24 procs for 3000000 steps with 400312 atoms

clear
next T
next concentracao
next index_simu
jump input_lammps.inp
